760
 generated by VMD
 C        41.300308      -20.459194        7.071317
 C        41.108204      -19.246284        7.780316
 C        41.108204      -19.246284        9.198317
 C        40.550697      -18.152107        9.907320
 C        40.550697      -18.152107        7.071317
 C        39.682354      -17.283768        7.780316
 C        39.682354      -17.283768        9.198317
 C        38.588169      -16.726261        9.907320
 C        38.588169      -16.726261        7.071317
 C        37.375263      -16.534157        7.780316
 C        37.375263      -16.534157        9.198317
 C        36.162365      -16.726261        9.907320
 C        36.162365      -16.726261        7.071317
 C        35.068188      -17.283768        7.780316
 C        35.068188      -17.283768        9.198317
 C        34.199841      -18.152107        9.907320
 C        34.199841      -18.152107        7.071317
 C        33.642330      -19.246284        7.780316
 C        33.642330      -19.246284        9.198317
 C        33.450230      -20.459194        9.907320
 C        33.450230      -20.459194        7.071317
 C        33.642330      -21.672098        7.780316
 C        33.642330      -21.672098        9.198317
 C        34.199841      -22.766273        9.907320
 C        34.199841      -22.766273        7.071317
 C        35.068188      -23.634621        7.780316
 C        35.068188      -23.634621        9.198317
 C        36.162365      -24.192131        9.907320
 C        36.162365      -24.192131        7.071317
 C        37.375263      -24.384235        7.780316
 C        37.375263      -24.384235        9.198317
 C        38.588169      -24.192131        9.907320
 C        38.588169      -24.192131        7.071317
 C        39.682354      -23.634621        7.780316
 C        39.682354      -23.634621        9.198317
 C        40.550697      -22.766273        9.907320
 C        40.550697      -22.766273        7.071317
 C        41.108204      -21.672098        7.780316
 C        41.108204      -21.672098        9.198317
 C        41.300308      -20.459194        9.907320
 C        41.300308      -20.459194       11.325319
 C        41.108204      -19.246284       12.034319
 C        41.108204      -19.246284       13.452320
 C        40.550697      -18.152107       14.161320
 C        40.550697      -18.152107       11.325319
 C        39.682354      -17.283768       12.034319
 C        39.682354      -17.283768       13.452320
 C        38.588169      -16.726261       14.161320
 C        38.588169      -16.726261       11.325319
 C        37.375263      -16.534157       12.034319
 C        37.375263      -16.534157       13.452320
 C        36.162365      -16.726261       14.161320
 C        36.162365      -16.726261       11.325319
 C        35.068188      -17.283768       12.034319
 C        35.068188      -17.283768       13.452320
 C        34.199841      -18.152107       14.161320
 C        34.199841      -18.152107       11.325319
 C        33.642330      -19.246284       12.034319
 C        33.642330      -19.246284       13.452320
 C        33.450230      -20.459194       14.161320
 C        33.450230      -20.459194       11.325319
 C        33.642330      -21.672098       12.034319
 C        33.642330      -21.672098       13.452320
 C        34.199841      -22.766273       14.161320
 C        34.199841      -22.766273       11.325319
 C        35.068188      -23.634621       12.034319
 C        35.068188      -23.634621       13.452320
 C        36.162365      -24.192131       14.161320
 C        36.162365      -24.192131       11.325319
 C        37.375263      -24.384235       12.034319
 C        37.375263      -24.384235       13.452320
 C        38.588169      -24.192131       14.161320
 C        38.588169      -24.192131       11.325319
 C        39.682354      -23.634621       12.034319
 C        39.682354      -23.634621       13.452320
 C        40.550697      -22.766273       14.161320
 C        40.550697      -22.766273       11.325319
 C        41.108204      -21.672098       12.034319
 C        41.108204      -21.672098       13.452320
 C        41.300308      -20.459194       14.161320
 C        41.300308      -20.459194       15.579319
 C        41.108204      -19.246284       16.288322
 C        41.108204      -19.246284       17.706322
 C        40.550697      -18.152107       18.415325
 C        40.550697      -18.152107       15.579319
 C        39.682354      -17.283768       16.288322
 C        39.682354      -17.283768       17.706322
 C        38.588169      -16.726261       18.415325
 C        38.588169      -16.726261       15.579319
 C        37.375263      -16.534157       16.288322
 C        37.375263      -16.534157       17.706322
 C        36.162365      -16.726261       18.415325
 C        36.162365      -16.726261       15.579319
 C        35.068188      -17.283768       16.288322
 C        35.068188      -17.283768       17.706322
 C        34.199841      -18.152107       18.415325
 C        34.199841      -18.152107       15.579319
 C        33.642330      -19.246284       16.288322
 C        33.642330      -19.246284       17.706322
 C        33.450230      -20.459194       18.415325
 C        33.450230      -20.459194       15.579319
 C        33.642330      -21.672098       16.288322
 C        33.642330      -21.672098       17.706322
 C        34.199841      -22.766273       18.415325
 C        34.199841      -22.766273       15.579319
 C        35.068188      -23.634621       16.288322
 C        35.068188      -23.634621       17.706322
 C        36.162365      -24.192131       18.415325
 C        36.162365      -24.192131       15.579319
 C        37.375263      -24.384235       16.288322
 C        37.375263      -24.384235       17.706322
 C        38.588169      -24.192131       18.415325
 C        38.588169      -24.192131       15.579319
 C        39.682354      -23.634621       16.288322
 C        39.682354      -23.634621       17.706322
 C        40.550697      -22.766273       18.415325
 C        40.550697      -22.766273       15.579319
 C        41.108204      -21.672098       16.288322
 C        41.108204      -21.672098       17.706322
 C        41.300308      -20.459194       18.415325
 C        41.300308      -20.459194       19.833330
 C        41.108204      -19.246284       20.542330
 C        41.108204      -19.246284       21.960329
 C        40.550697      -18.152107       22.669329
 C        40.550697      -18.152107       19.833330
 C        39.682354      -17.283768       20.542330
 C        39.682354      -17.283768       21.960329
 C        38.588169      -16.726261       22.669329
 C        38.588169      -16.726261       19.833330
 C        37.375263      -16.534157       20.542330
 C        37.375263      -16.534157       21.960329
 C        36.162365      -16.726261       22.669329
 C        36.162365      -16.726261       19.833330
 C        35.068188      -17.283768       20.542330
 C        35.068188      -17.283768       21.960329
 C        34.199841      -18.152107       22.669329
 C        34.199841      -18.152107       19.833330
 C        33.642330      -19.246284       20.542330
 C        33.642330      -19.246284       21.960329
 C        33.450230      -20.459194       22.669329
 C        33.450230      -20.459194       19.833330
 C        33.642330      -21.672098       20.542330
 C        33.642330      -21.672098       21.960329
 C        34.199841      -22.766273       22.669329
 C        34.199841      -22.766273       19.833330
 C        35.068188      -23.634621       20.542330
 C        35.068188      -23.634621       21.960329
 C        36.162365      -24.192131       22.669329
 C        36.162365      -24.192131       19.833330
 C        37.375263      -24.384235       20.542330
 C        37.375263      -24.384235       21.960329
 C        38.588169      -24.192131       22.669329
 C        38.588169      -24.192131       19.833330
 C        39.682354      -23.634621       20.542330
 C        39.682354      -23.634621       21.960329
 C        40.550697      -22.766273       22.669329
 C        40.550697      -22.766273       19.833330
 C        41.108204      -21.672098       20.542330
 C        41.108204      -21.672098       21.960329
 C        41.300308      -20.459194       22.669329
 C        41.300308      -20.459194       24.087332
 C        41.108204      -19.246284       24.796331
 C        41.108204      -19.246284       26.214334
 C        40.550697      -18.152107       26.923342
 C        40.550697      -18.152107       24.087332
 C        39.682354      -17.283768       24.796331
 C        39.682354      -17.283768       26.214334
 C        38.588169      -16.726261       26.923342
 C        38.588169      -16.726261       24.087332
 C        37.375263      -16.534157       24.796331
 C        37.375263      -16.534157       26.214334
 C        36.162365      -16.726261       26.923342
 C        36.162365      -16.726261       24.087332
 C        35.068188      -17.283768       24.796331
 C        35.068188      -17.283768       26.214334
 C        34.199841      -18.152107       26.923342
 C        34.199841      -18.152107       24.087332
 C        33.642330      -19.246284       24.796331
 C        33.642330      -19.246284       26.214334
 C        33.450230      -20.459194       26.923342
 C        33.450230      -20.459194       24.087332
 C        33.642330      -21.672098       24.796331
 C        33.642330      -21.672098       26.214334
 C        34.199841      -22.766273       26.923342
 C        34.199841      -22.766273       24.087332
 C        35.068188      -23.634621       24.796331
 C        35.068188      -23.634621       26.214334
 C        36.162365      -24.192131       26.923342
 C        36.162365      -24.192131       24.087332
 C        37.375263      -24.384235       24.796331
 C        37.375263      -24.384235       26.214334
 C        38.588169      -24.192131       26.923342
 C        38.588169      -24.192131       24.087332
 C        39.682354      -23.634621       24.796331
 C        39.682354      -23.634621       26.214334
 C        40.550697      -22.766273       26.923342
 C        40.550697      -22.766273       24.087332
 C        41.108204      -21.672098       24.796331
 C        41.108204      -21.672098       26.214334
 C        41.300308      -20.459194       26.923342
 C        41.300308      -20.459194       28.341339
 C        41.108204      -19.246284       29.050339
 C        41.108204      -19.246284       30.468338
 C        40.550697      -18.152107       31.177338
 C        40.550697      -18.152107       28.341339
 C        39.682354      -17.283768       29.050339
 C        39.682354      -17.283768       30.468338
 C        38.588169      -16.726261       31.177338
 C        38.588169      -16.726261       28.341339
 C        37.375263      -16.534157       29.050339
 C        37.375263      -16.534157       30.468338
 C        36.162365      -16.726261       31.177338
 C        36.162365      -16.726261       28.341339
 C        35.068188      -17.283768       29.050339
 C        35.068188      -17.283768       30.468338
 C        34.199841      -18.152107       31.177338
 C        34.199841      -18.152107       28.341339
 C        33.642330      -19.246284       29.050339
 C        33.642330      -19.246284       30.468338
 C        33.450230      -20.459194       31.177338
 C        33.450230      -20.459194       28.341339
 C        33.642330      -21.672098       29.050339
 C        33.642330      -21.672098       30.468338
 C        34.199841      -22.766273       31.177338
 C        34.199841      -22.766273       28.341339
 C        35.068188      -23.634621       29.050339
 C        35.068188      -23.634621       30.468338
 C        36.162365      -24.192131       31.177338
 C        36.162365      -24.192131       28.341339
 C        37.375263      -24.384235       29.050339
 C        37.375263      -24.384235       30.468338
 C        38.588169      -24.192131       31.177338
 C        38.588169      -24.192131       28.341339
 C        39.682354      -23.634621       29.050339
 C        39.682354      -23.634621       30.468338
 C        40.550697      -22.766273       31.177338
 C        40.550697      -22.766273       28.341339
 C        41.108204      -21.672098       29.050339
 C        41.108204      -21.672098       30.468338
 C        41.300308      -20.459194       31.177338
 C        41.300308      -20.459194       32.595329
 C        41.108204      -19.246284       33.304329
 C        41.108204      -19.246284       34.722328
 C        40.550697      -18.152107       35.431324
 C        40.550697      -18.152107       32.595329
 C        39.682354      -17.283768       33.304329
 C        39.682354      -17.283768       34.722328
 C        38.588169      -16.726261       35.431324
 C        38.588169      -16.726261       32.595329
 C        37.375263      -16.534157       33.304329
 C        37.375263      -16.534157       34.722328
 C        36.162365      -16.726261       35.431324
 C        36.162365      -16.726261       32.595329
 C        35.068188      -17.283768       33.304329
 C        35.068188      -17.283768       34.722328
 C        34.199841      -18.152107       35.431324
 C        34.199841      -18.152107       32.595329
 C        33.642330      -19.246284       33.304329
 C        33.642330      -19.246284       34.722328
 C        33.450230      -20.459194       35.431324
 C        33.450230      -20.459194       32.595329
 C        33.642330      -21.672098       33.304329
 C        33.642330      -21.672098       34.722328
 C        34.199841      -22.766273       35.431324
 C        34.199841      -22.766273       32.595329
 C        35.068188      -23.634621       33.304329
 C        35.068188      -23.634621       34.722328
 C        36.162365      -24.192131       35.431324
 C        36.162365      -24.192131       32.595329
 C        37.375263      -24.384235       33.304329
 C        37.375263      -24.384235       34.722328
 C        38.588169      -24.192131       35.431324
 C        38.588169      -24.192131       32.595329
 C        39.682354      -23.634621       33.304329
 C        39.682354      -23.634621       34.722328
 C        40.550697      -22.766273       35.431324
 C        40.550697      -22.766273       32.595329
 C        41.108204      -21.672098       33.304329
 C        41.108204      -21.672098       34.722328
 C        41.300308      -20.459194       35.431324
 C        41.300308      -20.459194       36.849316
 C        41.108204      -19.246284       37.558323
 C        41.108204      -19.246284       38.976330
 C        40.550697      -18.152107       39.685329
 C        40.550697      -18.152107       36.849316
 C        39.682354      -17.283768       37.558323
 C        39.682354      -17.283768       38.976330
 C        38.588169      -16.726261       39.685329
 C        38.588169      -16.726261       36.849316
 C        37.375263      -16.534157       37.558323
 C        37.375263      -16.534157       38.976330
 C        36.162365      -16.726261       39.685329
 C        36.162365      -16.726261       36.849316
 C        35.068188      -17.283768       37.558323
 C        35.068188      -17.283768       38.976330
 C        34.199841      -18.152107       39.685329
 C        34.199841      -18.152107       36.849316
 C        33.642330      -19.246284       37.558323
 C        33.642330      -19.246284       38.976330
 C        33.450230      -20.459194       39.685329
 C        33.450230      -20.459194       36.849316
 C        33.642330      -21.672098       37.558323
 C        33.642330      -21.672098       38.976330
 C        34.199841      -22.766273       39.685329
 C        34.199841      -22.766273       36.849316
 C        35.068188      -23.634621       37.558323
 C        35.068188      -23.634621       38.976330
 C        36.162365      -24.192131       39.685329
 C        36.162365      -24.192131       36.849316
 C        37.375263      -24.384235       37.558323
 C        37.375263      -24.384235       38.976330
 C        38.588169      -24.192131       39.685329
 C        38.588169      -24.192131       36.849316
 C        39.682354      -23.634621       37.558323
 C        39.682354      -23.634621       38.976330
 C        40.550697      -22.766273       39.685329
 C        40.550697      -22.766273       36.849316
 C        41.108204      -21.672098       37.558323
 C        41.108204      -21.672098       38.976330
 C        41.300308      -20.459194       39.685329
 C        41.300308      -20.459194       41.103336
 C        41.108204      -19.246284       41.812336
 C        41.108204      -19.246284       43.230335
 C        40.550697      -18.152107       43.939335
 C        40.550697      -18.152107       41.103336
 C        39.682354      -17.283768       41.812336
 C        39.682354      -17.283768       43.230335
 C        38.588169      -16.726261       43.939335
 C        38.588169      -16.726261       41.103336
 C        37.375263      -16.534157       41.812336
 C        37.375263      -16.534157       43.230335
 C        36.162365      -16.726261       43.939335
 C        36.162365      -16.726261       41.103336
 C        35.068188      -17.283768       41.812336
 C        35.068188      -17.283768       43.230335
 C        34.199841      -18.152107       43.939335
 C        34.199841      -18.152107       41.103336
 C        33.642330      -19.246284       41.812336
 C        33.642330      -19.246284       43.230335
 C        33.450230      -20.459194       43.939335
 C        33.450230      -20.459194       41.103336
 C        33.642330      -21.672098       41.812336
 C        33.642330      -21.672098       43.230335
 C        34.199841      -22.766273       43.939335
 C        34.199841      -22.766273       41.103336
 C        35.068188      -23.634621       41.812336
 C        35.068188      -23.634621       43.230335
 C        36.162365      -24.192131       43.939335
 C        36.162365      -24.192131       41.103336
 C        37.375263      -24.384235       41.812336
 C        37.375263      -24.384235       43.230335
 C        38.588169      -24.192131       43.939335
 C        38.588169      -24.192131       41.103336
 C        39.682354      -23.634621       41.812336
 C        39.682354      -23.634621       43.230335
 C        40.550697      -22.766273       43.939335
 C        40.550697      -22.766273       41.103336
 C        41.108204      -21.672098       41.812336
 C        41.108204      -21.672098       43.230335
 C        41.300308      -20.459194       43.939335
 C        41.300308      -20.459194       45.357334
 C        41.108204      -19.246284       46.066334
 C        41.108204      -19.246284       47.484333
 C        40.550697      -18.152107       48.193333
 C        40.550697      -18.152107       45.357334
 C        39.682354      -17.283768       46.066334
 C        39.682354      -17.283768       47.484333
 C        38.588169      -16.726261       48.193333
 C        38.588169      -16.726261       45.357334
 C        37.375263      -16.534157       46.066334
 C        37.375263      -16.534157       47.484333
 C        36.162365      -16.726261       48.193333
 C        36.162365      -16.726261       45.357334
 C        35.068188      -17.283768       46.066334
 C        35.068188      -17.283768       47.484333
 C        34.199841      -18.152107       48.193333
 C        34.199841      -18.152107       45.357334
 C        33.642330      -19.246284       46.066334
 C        33.642330      -19.246284       47.484333
 C        33.450230      -20.459194       48.193333
 C        33.450230      -20.459194       45.357334
 C        33.642330      -21.672098       46.066334
 C        33.642330      -21.672098       47.484333
 C        34.199841      -22.766273       48.193333
 C        34.199841      -22.766273       45.357334
 C        35.068188      -23.634621       46.066334
 C        35.068188      -23.634621       47.484333
 C        36.162365      -24.192131       48.193333
 C        36.162365      -24.192131       45.357334
 C        37.375263      -24.384235       46.066334
 C        37.375263      -24.384235       47.484333
 C        38.588169      -24.192131       48.193333
 C        38.588169      -24.192131       45.357334
 C        39.682354      -23.634621       46.066334
 C        39.682354      -23.634621       47.484333
 C        40.550697      -22.766273       48.193333
 C        40.550697      -22.766273       45.357334
 C        41.108204      -21.672098       46.066334
 C        41.108204      -21.672098       47.484333
 C        41.300308      -20.459194       48.193333
 C        41.300308      -20.459194       49.611332
 C        41.108204      -19.246284       50.320332
 C        41.108204      -19.246284       51.738331
 C        40.550697      -18.152107       52.447330
 C        40.550697      -18.152107       49.611332
 C        39.682354      -17.283768       50.320332
 C        39.682354      -17.283768       51.738331
 C        38.588169      -16.726261       52.447330
 C        38.588169      -16.726261       49.611332
 C        37.375263      -16.534157       50.320332
 C        37.375263      -16.534157       51.738331
 C        36.162365      -16.726261       52.447330
 C        36.162365      -16.726261       49.611332
 C        35.068188      -17.283768       50.320332
 C        35.068188      -17.283768       51.738331
 C        34.199841      -18.152107       52.447330
 C        34.199841      -18.152107       49.611332
 C        33.642330      -19.246284       50.320332
 C        33.642330      -19.246284       51.738331
 C        33.450230      -20.459194       52.447330
 C        33.450230      -20.459194       49.611332
 C        33.642330      -21.672098       50.320332
 C        33.642330      -21.672098       51.738331
 C        34.199841      -22.766273       52.447330
 C        34.199841      -22.766273       49.611332
 C        35.068188      -23.634621       50.320332
 C        35.068188      -23.634621       51.738331
 C        36.162365      -24.192131       52.447330
 C        36.162365      -24.192131       49.611332
 C        37.375263      -24.384235       50.320332
 C        37.375263      -24.384235       51.738331
 C        38.588169      -24.192131       52.447330
 C        38.588169      -24.192131       49.611332
 C        39.682354      -23.634621       50.320332
 C        39.682354      -23.634621       51.738331
 C        40.550697      -22.766273       52.447330
 C        40.550697      -22.766273       49.611332
 C        41.108204      -21.672098       50.320332
 C        41.108204      -21.672098       51.738331
 C        41.300308      -20.459194       52.447330
 C        41.300308      -20.459194       53.865330
 C        41.108204      -19.246284       54.574322
 C        41.108204      -19.246284       55.992321
 C        40.550697      -18.152107       56.701321
 C        40.550697      -18.152107       53.865330
 C        39.682354      -17.283768       54.574322
 C        39.682354      -17.283768       55.992321
 C        38.588169      -16.726261       56.701321
 C        38.588169      -16.726261       53.865330
 C        37.375263      -16.534157       54.574322
 C        37.375263      -16.534157       55.992321
 C        36.162365      -16.726261       56.701321
 C        36.162365      -16.726261       53.865330
 C        35.068188      -17.283768       54.574322
 C        35.068188      -17.283768       55.992321
 C        34.199841      -18.152107       56.701321
 C        34.199841      -18.152107       53.865330
 C        33.642330      -19.246284       54.574322
 C        33.642330      -19.246284       55.992321
 C        33.450230      -20.459194       56.701321
 C        33.450230      -20.459194       53.865330
 C        33.642330      -21.672098       54.574322
 C        33.642330      -21.672098       55.992321
 C        34.199841      -22.766273       56.701321
 C        34.199841      -22.766273       53.865330
 C        35.068188      -23.634621       54.574322
 C        35.068188      -23.634621       55.992321
 C        36.162365      -24.192131       56.701321
 C        36.162365      -24.192131       53.865330
 C        37.375263      -24.384235       54.574322
 C        37.375263      -24.384235       55.992321
 C        38.588169      -24.192131       56.701321
 C        38.588169      -24.192131       53.865330
 C        39.682354      -23.634621       54.574322
 C        39.682354      -23.634621       55.992321
 C        40.550697      -22.766273       56.701321
 C        40.550697      -22.766273       53.865330
 C        41.108204      -21.672098       54.574322
 C        41.108204      -21.672098       55.992321
 C        41.300308      -20.459194       56.701321
 C        41.300308      -20.459194       58.119320
 C        41.108204      -19.246284       58.828320
 C        41.108204      -19.246284       60.246330
 C        40.550697      -18.152107       60.955311
 C        40.550697      -18.152107       58.119320
 C        39.682354      -17.283768       58.828320
 C        39.682354      -17.283768       60.246330
 C        38.588169      -16.726261       60.955311
 C        38.588169      -16.726261       58.119320
 C        37.375263      -16.534157       58.828320
 C        37.375263      -16.534157       60.246330
 C        36.162365      -16.726261       60.955311
 C        36.162365      -16.726261       58.119320
 C        35.068188      -17.283768       58.828320
 C        35.068188      -17.283768       60.246330
 C        34.199841      -18.152107       60.955311
 C        34.199841      -18.152107       58.119320
 C        33.642330      -19.246284       58.828320
 C        33.642330      -19.246284       60.246330
 C        33.450230      -20.459194       60.955311
 C        33.450230      -20.459194       58.119320
 C        33.642330      -21.672098       58.828320
 C        33.642330      -21.672098       60.246330
 C        34.199841      -22.766273       60.955311
 C        34.199841      -22.766273       58.119320
 C        35.068188      -23.634621       58.828320
 C        35.068188      -23.634621       60.246330
 C        36.162365      -24.192131       60.955311
 C        36.162365      -24.192131       58.119320
 C        37.375263      -24.384235       58.828320
 C        37.375263      -24.384235       60.246330
 C        38.588169      -24.192131       60.955311
 C        38.588169      -24.192131       58.119320
 C        39.682354      -23.634621       58.828320
 C        39.682354      -23.634621       60.246330
 C        40.550697      -22.766273       60.955311
 C        40.550697      -22.766273       58.119320
 C        41.108204      -21.672098       58.828320
 C        41.108204      -21.672098       60.246330
 C        41.300308      -20.459194       60.955311
 C        41.300308      -20.459194       62.373314
 C        41.108204      -19.246284       63.082325
 C        41.108204      -19.246284       64.500275
 C        40.550697      -18.152107       65.209290
 C        40.550697      -18.152107       62.373314
 C        39.682354      -17.283768       63.082325
 C        39.682354      -17.283768       64.500275
 C        38.588169      -16.726261       65.209290
 C        38.588169      -16.726261       62.373314
 C        37.375263      -16.534157       63.082325
 C        37.375263      -16.534157       64.500275
 C        36.162365      -16.726261       65.209290
 C        36.162365      -16.726261       62.373314
 C        35.068188      -17.283768       63.082325
 C        35.068188      -17.283768       64.500275
 C        34.199841      -18.152107       65.209290
 C        34.199841      -18.152107       62.373314
 C        33.642330      -19.246284       63.082325
 C        33.642330      -19.246284       64.500275
 C        33.450230      -20.459194       65.209290
 C        33.450230      -20.459194       62.373314
 C        33.642330      -21.672098       63.082325
 C        33.642330      -21.672098       64.500275
 C        34.199841      -22.766273       65.209290
 C        34.199841      -22.766273       62.373314
 C        35.068188      -23.634621       63.082325
 C        35.068188      -23.634621       64.500275
 C        36.162365      -24.192131       65.209290
 C        36.162365      -24.192131       62.373314
 C        37.375263      -24.384235       63.082325
 C        37.375263      -24.384235       64.500275
 C        38.588169      -24.192131       65.209290
 C        38.588169      -24.192131       62.373314
 C        39.682354      -23.634621       63.082325
 C        39.682354      -23.634621       64.500275
 C        40.550697      -22.766273       65.209290
 C        40.550697      -22.766273       62.373314
 C        41.108204      -21.672098       63.082325
 C        41.108204      -21.672098       64.500275
 C        41.300308      -20.459194       65.209290
 C        41.300308      -20.459194       66.627289
 C        41.108204      -19.246284       67.336258
 C        41.108204      -19.246284       68.754227
 C        40.550697      -18.152107       69.463226
 C        40.550697      -18.152107       66.627289
 C        39.682354      -17.283768       67.336258
 C        39.682354      -17.283768       68.754227
 C        38.588169      -16.726261       69.463226
 C        38.588169      -16.726261       66.627289
 C        37.375263      -16.534157       67.336258
 C        37.375263      -16.534157       68.754227
 C        36.162365      -16.726261       69.463226
 C        36.162365      -16.726261       66.627289
 C        35.068188      -17.283768       67.336258
 C        35.068188      -17.283768       68.754227
 C        34.199841      -18.152107       69.463226
 C        34.199841      -18.152107       66.627289
 C        33.642330      -19.246284       67.336258
 C        33.642330      -19.246284       68.754227
 C        33.450230      -20.459194       69.463226
 C        33.450230      -20.459194       66.627289
 C        33.642330      -21.672098       67.336258
 C        33.642330      -21.672098       68.754227
 C        34.199841      -22.766273       69.463226
 C        34.199841      -22.766273       66.627289
 C        35.068188      -23.634621       67.336258
 C        35.068188      -23.634621       68.754227
 C        36.162365      -24.192131       69.463226
 C        36.162365      -24.192131       66.627289
 C        37.375263      -24.384235       67.336258
 C        37.375263      -24.384235       68.754227
 C        38.588169      -24.192131       69.463226
 C        38.588169      -24.192131       66.627289
 C        39.682354      -23.634621       67.336258
 C        39.682354      -23.634621       68.754227
 C        40.550697      -22.766273       69.463226
 C        40.550697      -22.766273       66.627289
 C        41.108204      -21.672098       67.336258
 C        41.108204      -21.672098       68.754227
 C        41.300308      -20.459194       69.463226
 C        41.300308      -20.459194       70.881241
 C        41.108204      -19.246284       71.590240
 C        41.108204      -19.246284       73.008240
 C        40.550697      -18.152107       73.717255
 C        40.550697      -18.152107       70.881241
 C        39.682354      -17.283768       71.590240
 C        39.682354      -17.283768       73.008240
 C        38.588169      -16.726261       73.717255
 C        38.588169      -16.726261       70.881241
 C        37.375263      -16.534157       71.590240
 C        37.375263      -16.534157       73.008240
 C        36.162365      -16.726261       73.717255
 C        36.162365      -16.726261       70.881241
 C        35.068188      -17.283768       71.590240
 C        35.068188      -17.283768       73.008240
 C        34.199841      -18.152107       73.717255
 C        34.199841      -18.152107       70.881241
 C        33.642330      -19.246284       71.590240
 C        33.642330      -19.246284       73.008240
 C        33.450230      -20.459194       73.717255
 C        33.450230      -20.459194       70.881241
 C        33.642330      -21.672098       71.590240
 C        33.642330      -21.672098       73.008240
 C        34.199841      -22.766273       73.717255
 C        34.199841      -22.766273       70.881241
 C        35.068188      -23.634621       71.590240
 C        35.068188      -23.634621       73.008240
 C        36.162365      -24.192131       73.717255
 C        36.162365      -24.192131       70.881241
 C        37.375263      -24.384235       71.590240
 C        37.375263      -24.384235       73.008240
 C        38.588169      -24.192131       73.717255
 C        38.588169      -24.192131       70.881241
 C        39.682354      -23.634621       71.590240
 C        39.682354      -23.634621       73.008240
 C        40.550697      -22.766273       73.717255
 C        40.550697      -22.766273       70.881241
 C        41.108204      -21.672098       71.590240
 C        41.108204      -21.672098       73.008240
 C        41.300308      -20.459194       73.717255
 C        41.300308      -20.459194       75.135254
 C        41.108204      -19.246284       75.844254
 C        41.108204      -19.246284       77.262253
 C        40.550697      -18.152107       77.971252
 C        40.550697      -18.152107       75.135254
 C        39.682354      -17.283768       75.844254
 C        39.682354      -17.283768       77.262253
 C        38.588169      -16.726261       77.971252
 C        38.588169      -16.726261       75.135254
 C        37.375263      -16.534157       75.844254
 C        37.375263      -16.534157       77.262253
 C        36.162365      -16.726261       77.971252
 C        36.162365      -16.726261       75.135254
 C        35.068188      -17.283768       75.844254
 C        35.068188      -17.283768       77.262253
 C        34.199841      -18.152107       77.971252
 C        34.199841      -18.152107       75.135254
 C        33.642330      -19.246284       75.844254
 C        33.642330      -19.246284       77.262253
 C        33.450230      -20.459194       77.971252
 C        33.450230      -20.459194       75.135254
 C        33.642330      -21.672098       75.844254
 C        33.642330      -21.672098       77.262253
 C        34.199841      -22.766273       77.971252
 C        34.199841      -22.766273       75.135254
 C        35.068188      -23.634621       75.844254
 C        35.068188      -23.634621       77.262253
 C        36.162365      -24.192131       77.971252
 C        36.162365      -24.192131       75.135254
 C        37.375263      -24.384235       75.844254
 C        37.375263      -24.384235       77.262253
 C        38.588169      -24.192131       77.971252
 C        38.588169      -24.192131       75.135254
 C        39.682354      -23.634621       75.844254
 C        39.682354      -23.634621       77.262253
 C        40.550697      -22.766273       77.971252
 C        40.550697      -22.766273       75.135254
 C        41.108204      -21.672098       75.844254
 C        41.108204      -21.672098       77.262253
 C        41.300308      -20.459194       77.971252
 C        41.300308      -20.459194       79.389252
 C        41.108204      -19.246284       80.098251
 C        41.108204      -19.246284       81.516251
 C        40.550697      -18.152107       82.225250
 C        40.550697      -18.152107       79.389252
 C        39.682354      -17.283768       80.098251
 C        39.682354      -17.283768       81.516251
 C        38.588169      -16.726261       82.225250
 C        38.588169      -16.726261       79.389252
 C        37.375263      -16.534157       80.098251
 C        37.375263      -16.534157       81.516251
 C        36.162365      -16.726261       82.225250
 C        36.162365      -16.726261       79.389252
 C        35.068188      -17.283768       80.098251
 C        35.068188      -17.283768       81.516251
 C        34.199841      -18.152107       82.225250
 C        34.199841      -18.152107       79.389252
 C        33.642330      -19.246284       80.098251
 C        33.642330      -19.246284       81.516251
 C        33.450230      -20.459194       82.225250
 C        33.450230      -20.459194       79.389252
 C        33.642330      -21.672098       80.098251
 C        33.642330      -21.672098       81.516251
 C        34.199841      -22.766273       82.225250
 C        34.199841      -22.766273       79.389252
 C        35.068188      -23.634621       80.098251
 C        35.068188      -23.634621       81.516251
 C        36.162365      -24.192131       82.225250
 C        36.162365      -24.192131       79.389252
 C        37.375263      -24.384235       80.098251
 C        37.375263      -24.384235       81.516251
 C        38.588169      -24.192131       82.225250
 C        38.588169      -24.192131       79.389252
 C        39.682354      -23.634621       80.098251
 C        39.682354      -23.634621       81.516251
 C        40.550697      -22.766273       82.225250
 C        40.550697      -22.766273       79.389252
 C        41.108204      -21.672098       80.098251
 C        41.108204      -21.672098       81.516251
 C        41.300308      -20.459194       82.225250
 C        41.300308      -20.459194       83.643250
 C        41.108204      -19.246284       84.352264
 C        41.108204      -19.246284       85.770248
 C        40.550697      -18.152107       86.479248
 C        40.550697      -18.152107       83.643250
 C        39.682354      -17.283768       84.352264
 C        39.682354      -17.283768       85.770248
 C        38.588169      -16.726261       86.479248
 C        38.588169      -16.726261       83.643250
 C        37.375263      -16.534157       84.352264
 C        37.375263      -16.534157       85.770248
 C        36.162365      -16.726261       86.479248
 C        36.162365      -16.726261       83.643250
 C        35.068188      -17.283768       84.352264
 C        35.068188      -17.283768       85.770248
 C        34.199841      -18.152107       86.479248
 C        34.199841      -18.152107       83.643250
 C        33.642330      -19.246284       84.352264
 C        33.642330      -19.246284       85.770248
 C        33.450230      -20.459194       86.479248
 C        33.450230      -20.459194       83.643250
 C        33.642330      -21.672098       84.352264
 C        33.642330      -21.672098       85.770248
 C        34.199841      -22.766273       86.479248
 C        34.199841      -22.766273       83.643250
 C        35.068188      -23.634621       84.352264
 C        35.068188      -23.634621       85.770248
 C        36.162365      -24.192131       86.479248
 C        36.162365      -24.192131       83.643250
 C        37.375263      -24.384235       84.352264
 C        37.375263      -24.384235       85.770248
 C        38.588169      -24.192131       86.479248
 C        38.588169      -24.192131       83.643250
 C        39.682354      -23.634621       84.352264
 C        39.682354      -23.634621       85.770248
 C        40.550697      -22.766273       86.479248
 C        40.550697      -22.766273       83.643250
 C        41.108204      -21.672098       84.352264
 C        41.108204      -21.672098       85.770248
 C        41.300308      -20.459194       86.479248
